
 **********************************************
 **** Specfem 3-D Solver - MPI version f90 ****
 **********************************************

 Running Git package version of the code: 3.0.0
 which is Git undefined in the case of old tar ball builds
 dating undefined in the case of old tar ball builds


 There are            2  MPI processes
 Processes are numbered from 0 to            1

 There is a total of            2  slices

  NDIM =            3

  NGLLX =            5
  NGLLY =            5
  NGLLZ =            5

 using single precision for the calculations

 smallest and largest possible floating-point numbers are:    1.17549435E-38   3.40282347E+38

 velocity model:   tomo

 Reading mesh databases...
 done

 total acoustic elements    :           0
 total elastic elements     :        2520
 total poroelastic elements :           0

 Mesh resolution:

 ********
 minimum and maximum number of elements
 and points in the CUBIT + SCOTCH mesh:

 NSPEC_global_min =         1260
 NSPEC_global_max =         1260
 NSPEC_global_max / NSPEC_global_min imbalance =    1.00000000      =    0.00000000      %
 NSPEC_global_sum =         2520

 NGLOB_global_min =        88125
 NGLOB_global_max =        88125
 NGLOB_global_max / NGLOB_global_min imbalance =    1.00000000      =    0.00000000      %
 NGLOB_global_sum =       176250

 If you have elements of a single type (all acoustic, all elastic, all poroelastic, and without CPML)
 in the whole mesh, then there should be no significant imbalance in the above numbers.
 Otherwise, it is normal to have imbalance in elements and points because the domain decomposer
 compensates for the different cost of different elements by partitioning them unevenly among processes.
 ********


 ********
 Model: P velocity min,max =    2500.00024       2507.00000    
 Model: S velocity min,max =    1500.00000       1504.04626    

 Model: Poisson's ratio min,max =   0.218750075      0.218839794    
 ********

 *********************************************
 *** Verification of simulation parameters ***
 *********************************************

 *** Xmin and Xmax of the model =    0.00000000       144.000000    
 *** Ymin and Ymax of the model =    0.00000000       288.000000    
 *** Zmin and Zmax of the model =   -70.5000000       0.00000000    

 *** Max GLL point distance =    15.7117004    
 *** Min GLL point distance =   0.259009361    
 *** Max/min ratio =    60.6607437    

 *** Max element size =    48.0000000    
 *** Min element size =    1.50000000    
 *** Max/min ratio =    32.0000000    

 *** Minimum period resolved =    4.00000028E-02
 *** Maximum suggested time step =    5.17306762E-05

 *** for DT :    5.0000000000000002E-005
 *** Max stability for wave velocities =   0.483272254    

 Elapsed time for checking mesh resolution in seconds =    3.3416514000000001E-002
 saving VTK files for Courant number and minimum period


 ******************************************
 There is a total of            2  slices
 ******************************************

 mesh surfaces:
   high-resolution  =  T
   nfaces per slice =           36          36

   total number of surface faces is           72

 surface movies:
   saving: particle velocities
   number of steps between frames =          200


 kd-tree:
   total data points:         1260
   theoretical   number of nodes:         2514
                tree memory size:    7.67211914E-02 MB
   actual        number of nodes:         2519
                tree memory size:    7.68737793E-02 MB
   maximum depth   :           12
   creation timing :    5.73039055E-04 (s)


 sources:           1

 ********************
  locating sources
 ********************

 reading source information from ./DATA/FORCESOLUTION file

 no UTM projection


 source #            1
   source located in slice            1
                  in element         1231
                  in elastic domain

   using force point source: 
     xi coordinate of source in that element:    5.8333333333332384E-002
     eta coordinate of source in that element:    3.9999999999999737E-002
     gamma coordinate of source in that element:    1.0000000000000000     

     component of direction vector in East direction:    0.00000000    
     component of direction vector in North direction:    0.00000000    
     component of direction vector in Vertical direction:   -1.00000000    

     nu1 =    1.0000000000000000        0.0000000000000000        0.0000000000000000     
     nu2 =    0.0000000000000000        1.0000000000000000        0.0000000000000000     
     nu3 =    0.0000000000000000        0.0000000000000000        1.0000000000000000     

     at (x,y,z) coordinates =    78.350000000000009        72.960000000000008        0.0000000000000000     

   source time function:
     using Ricker source time function
     using a source of dominant frequency    30.000000000000000     
     t0_ricker =    4.0000000000000001E-002
     Ricker frequency:    30.000000000000000       Hz

     time shift:    0.0000000000000000       seconds

   magnitude of the source:
     factor =    10000000000.000000     

   original (requested) position of the source:

             latitude:    72.959999999999994     
            longitude:    78.349999999999994     

                x:    78.350000000000009     
                y:    72.960000000000008     
            depth:    0.0000000000000000       km
   topo elevation:    0.0000000000000000     

   position of the source that will be used:

                x:    78.350000000000009     
                y:    72.960000000000008     
            depth:    0.0000000000000000       km
                z:    0.0000000000000000     

   error in location of the source:    2.00971831E-14  m



 maximum error in location of the sources:    2.00971831E-14  m


 Elapsed time for detection of sources in seconds =    5.2419599999975475E-004

 End of source detection - done


 Each source is being convolved with HDUR_MOVIE =    0.0000000000000000     


 receivers:

 there are          720  stations in file ./DATA/STATIONS
 saving          290  stations inside the model in file ./DATA/STATIONS_FILTERED
 excluding          430  stations located outside the model


 Total number of receivers =          290


 ********************
  locating receivers
 ********************

 reading receiver information from ./DATA/STATIONS_FILTERED file


 station #            1     DB    X44
      original latitude:    79.9599991    
      original longitude:    143.929993    
      original x:    143.929993    
      original y:    79.9599991    
      original depth:    0.00000000      m
      horizontal distance:    6.59525320E-02
      target x, y, z:    143.929993       79.9599991       0.00000000    
      closest estimate found:    2.84217094E-14  m away

      receiver located in slice            1
                       in element         1236
                       in elastic domain
      at coordinates: 
      xi    =   0.98833333333333451     
      eta   =   0.33166666666666633     
      gamma =    1.0000000000000000     
      rotation matrix: 
      nu1 =    1.00000000       0.00000000       0.00000000    
      nu2 =    0.00000000       1.00000000       0.00000000    
      nu3 =    0.00000000       0.00000000       1.00000000    
      x:    143.93000000000004     
      y:    79.959999999999994     
      depth:    0.0000000000000000       m
      z:    0.0000000000000000     



 station #            2     DB    X45
      original latitude:    79.9800034    
      original longitude:    142.919998    
      original x:    142.919998    
      original y:    79.9800034    
      original depth:    0.00000000      m
      horizontal distance:    6.49504811E-02
      target x, y, z:    142.919998       79.9800034       0.00000000    
      closest estimate found:    0.00000000      m away

      receiver located in slice            1
                       in element         1236
                       in elastic domain
      at coordinates: 
      xi    =   0.81999999999999795     
      eta   =   0.33250000000000013     
      gamma =    1.0000000000000000     
      rotation matrix: 
      nu1 =    1.00000000       0.00000000       0.00000000    
      nu2 =    0.00000000       1.00000000       0.00000000    
      nu3 =    0.00000000       0.00000000       1.00000000    
      x:    142.91999999999999     
      y:    79.980000000000004     
      depth:    0.0000000000000000       m
      z:    0.0000000000000000     



 station #            3     DB    X46
      original latitude:    80.0100021    
      original longitude:    141.899994    
      original x:    141.899994    
      original y:    80.0100021    
      original depth:    0.00000000      m
      horizontal distance:    6.39398545E-02
      target x, y, z:    141.899994       80.0100021       0.00000000    
      closest estimate found:    1.42108547E-14  m away

      receiver located in slice            1
                       in element         1236
                       in elastic domain
      at coordinates: 
      xi    =   0.65000000000000102     
      eta   =   0.33375000000000016     
      gamma =    1.0000000000000000     
      rotation matrix: 
      nu1 =    1.00000000       0.00000000       0.00000000    
      nu2 =    0.00000000       1.00000000       0.00000000    
      nu3 =    0.00000000       0.00000000       1.00000000    
      x:    141.90000000000001     
      y:    80.009999999999991     
      depth:    0.0000000000000000       m
      z:    0.0000000000000000     



 station #            4     DB    X47
      original latitude:    80.0299988    
      original longitude:    140.880005    
      original x:    140.880005    
      original y:    80.0299988    
      original depth:    0.00000000      m
      horizontal distance:    6.29284158E-02
      target x, y, z:    140.880005       80.0299988       0.00000000    
      closest estimate found:    0.00000000      m away

      receiver located in slice            1
                       in element         1236
                       in elastic domain
      at coordinates: 
      xi    =   0.47999999999999926     
      eta   =   0.33458333333333334     
      gamma =    1.0000000000000000     
      rotation matrix: 
      nu1 =    1.00000000       0.00000000       0.00000000    
      nu2 =    0.00000000       1.00000000       0.00000000    
      nu3 =    0.00000000       0.00000000       1.00000000    
      x:    140.88000000000000     
      y:    80.030000000000001     
      depth:    0.0000000000000000       m
      z:    0.0000000000000000     



 station #            5     DB    X48
      original latitude:    79.9700012    
      original longitude:    139.929993    
      original x:    139.929993    
      original y:    79.9700012    
      original depth:    0.00000000      m
      horizontal distance:    6.19777106E-02
      target x, y, z:    139.929993       79.9700012       0.00000000    
      closest estimate found:    0.00000000      m away

      receiver located in slice            1
                       in element         1236
                       in elastic domain
      at coordinates: 
      xi    =   0.32166666666666777     
      eta   =   0.33208333333333323     
      gamma =    1.0000000000000000     
      rotation matrix: 
      nu1 =    1.00000000       0.00000000       0.00000000    
      nu2 =    0.00000000       1.00000000       0.00000000    
      nu3 =    0.00000000       0.00000000       1.00000000    
      x:    139.93000000000001     
      y:    79.969999999999999     
      depth:    0.0000000000000000       m
      z:    0.0000000000000000     



 station #            6     DB    X49
      original latitude:    79.9899979    
      original longitude:    138.910004    
      original x:    138.910004    
      original y:    79.9899979    
      original depth:    0.00000000      m
      horizontal distance:    6.09666668E-02
      target x, y, z:    138.910004       79.9899979       0.00000000    
      closest estimate found:    0.00000000      m away

      receiver located in slice            1
                       in element         1236
                       in elastic domain
      at coordinates: 
      xi    =   0.15166666666666609     
      eta   =   0.33291666666666642     
      gamma =    1.0000000000000000     
      rotation matrix: 
      nu1 =    1.00000000       0.00000000       0.00000000    
      nu2 =    0.00000000       1.00000000       0.00000000    
      nu3 =    0.00000000       0.00000000       1.00000000    
      x:    138.91000000000000     
      y:    79.989999999999995     
      depth:    0.0000000000000000       m
      z:    0.0000000000000000     



 station #            7     DB    X50
      original latitude:    80.0100021    
      original longitude:    137.889999    
      original x:    137.889999    
      original y:    80.0100021    
      original depth:    0.00000000      m
      horizontal distance:    5.99559359E-02
      target x, y, z:    137.889999       80.0100021       0.00000000    
      closest estimate found:    0.00000000      m away

      receiver located in slice            1
                       in element         1236
                       in elastic domain
      at coordinates: 
      xi    =   -1.8333333333335606E-002
      eta   =   0.33375000000000016     
      gamma =    1.0000000000000000     
      rotation matrix: 
      nu1 =    1.00000000       0.00000000       0.00000000    
      nu2 =    0.00000000       1.00000000       0.00000000    
      nu3 =    0.00000000       0.00000000       1.00000000    
      x:    137.88999999999999     
      y:    80.010000000000005     
      depth:    0.0000000000000000       m
      z:    0.0000000000000000     



 station #            8     DB    X51
      original latitude:    79.9499969    
      original longitude:    136.929993    
      original x:    136.929993    
      original y:    79.9499969    
      original depth:    0.00000000      m
      horizontal distance:    5.89955635E-02
      target x, y, z:    136.929993       79.9499969       0.00000000    
      closest estimate found:    0.00000000      m away

      receiver located in slice            1
                       in element         1236
                       in elastic domain
      at coordinates: 
      xi    =  -0.17833333333333218     
      eta   =   0.33125000000000004     
      gamma =    1.0000000000000000     
      rotation matrix: 
      nu1 =    1.00000000       0.00000000       0.00000000    
      nu2 =    0.00000000       1.00000000       0.00000000    
      nu3 =    0.00000000       0.00000000       1.00000000    
      x:    136.93000000000001     
      y:    79.950000000000003     
      depth:    0.0000000000000000       m
      z:    0.0000000000000000     



 station #            9     DB    X52
      original latitude:    79.9700012    
      original longitude:    135.919998    
      original x:    135.919998    
      original y:    79.9700012    
      original depth:    0.00000000      m
      horizontal distance:    5.79952151E-02
      target x, y, z:    135.919998       79.9700012       0.00000000    
      closest estimate found:    0.00000000      m away

      receiver located in slice            1
                       in element         1236
                       in elastic domain
      at coordinates: 
      xi    =  -0.34666666666666845     
      eta   =   0.33208333333333323     
      gamma =    1.0000000000000000     
      rotation matrix: 
      nu1 =    1.00000000       0.00000000       0.00000000    
      nu2 =    0.00000000       1.00000000       0.00000000    
      nu3 =    0.00000000       0.00000000       1.00000000    
      x:    135.91999999999999     
      y:    79.969999999999999     
      depth:    0.0000000000000000       m
      z:    0.0000000000000000     



 station #           10     DB    X53
      original latitude:    80.0000000    
      original longitude:    134.899994    
      original x:    134.899994    
      original y:    80.0000000    
      original depth:    0.00000000      m
      horizontal distance:    5.69865257E-02
      target x, y, z:    134.899994       80.0000000       0.00000000    
      closest estimate found:    2.84217094E-14  m away

      receiver located in slice            1
                       in element         1236
                       in elastic domain
      at coordinates: 
      xi    =  -0.51666666666667016     
      eta   =   0.33333333333333326     
      gamma =    1.0000000000000000     
      rotation matrix: 
      nu1 =    1.00000000       0.00000000       0.00000000    
      nu2 =    0.00000000       1.00000000       0.00000000    
      nu3 =    0.00000000       0.00000000       1.00000000    
      x:    134.89999999999998     
      y:    80.000000000000000     
      depth:    0.0000000000000000       m
      z:    0.0000000000000000     



 station #           11     DB    X54
      original latitude:    80.0199966    
      original longitude:    133.889999    
      original x:    133.889999    
      original y:    80.0199966    
      original depth:    0.00000000      m
      horizontal distance:    5.59869185E-02
      target x, y, z:    133.889999       80.0199966       0.00000000    
      closest estimate found:    0.00000000      m away

      receiver located in slice            1
                       in element         1236
                       in elastic domain
      at coordinates: 
      xi    =  -0.68500000000000671     
      eta   =   0.33416666666666645     
      gamma =    1.0000000000000000     
      rotation matrix: 
      nu1 =    1.00000000       0.00000000       0.00000000    
      nu2 =    0.00000000       1.00000000       0.00000000    
      nu3 =    0.00000000       0.00000000       1.00000000    
      x:    133.88999999999999     
      y:    80.019999999999996     
      depth:    0.0000000000000000       m
      z:    0.0000000000000000     



 station #           12     DB    X55
      original latitude:    79.9599991    
      original longitude:    132.929993    
      original x:    132.929993    
      original y:    79.9599991    
      original depth:    0.00000000      m
      horizontal distance:    5.50270528E-02
      target x, y, z:    132.929993       79.9599991       0.00000000    
      closest estimate found:    1.42108547E-14  m away

      receiver located in slice            1
                       in element         1236
                       in elastic domain
      at coordinates: 
      xi    =  -0.84499999999999886     
      eta   =   0.33166666666666633     
      gamma =    1.0000000000000000     
      rotation matrix: 
      nu1 =    1.00000000       0.00000000       0.00000000    
      nu2 =    0.00000000       1.00000000       0.00000000    
      nu3 =    0.00000000       0.00000000       1.00000000    
      x:    132.93000000000001     
      y:    79.959999999999980     
      depth:    0.0000000000000000       m
      z:    0.0000000000000000     



 station #           13     DB    X56
      original latitude:    79.9800034    
      original longitude:    131.910004    
      original x:    131.910004    
      original y:    79.9800034    
      original depth:    0.00000000      m
      horizontal distance:    5.40180914E-02
      target x, y, z:    131.910004       79.9800034       0.00000000    
      closest estimate found:    0.00000000      m away

      receiver located in slice            1
                       in element         1235
                       in elastic domain
      at coordinates: 
      xi    =   0.98499999999999943     
      eta   =   0.33250000000000013     
      gamma =    1.0000000000000000     
      rotation matrix: 
      nu1 =    1.00000000       0.00000000       0.00000000    
      nu2 =    0.00000000       1.00000000       0.00000000    
      nu3 =    0.00000000       0.00000000       1.00000000    
      x:    131.91000000000000     
      y:    79.980000000000004     
      depth:    0.0000000000000000       m
      z:    0.0000000000000000     



 station #           14     DB    X57
      original latitude:    80.0000000    
      original longitude:    130.899994    
      original x:    130.899994    
      original y:    80.0000000    
      original depth:    0.00000000      m
      horizontal distance:    5.30194677E-02
      target x, y, z:    130.899994       80.0000000       0.00000000    
      closest estimate found:    1.42108547E-14  m away

      receiver located in slice            1
                       in element         1235
                       in elastic domain
      at coordinates: 
      xi    =   0.81666666666666765     
      eta   =   0.33333333333333326     
      gamma =    1.0000000000000000     
      rotation matrix: 
      nu1 =    1.00000000       0.00000000       0.00000000    
      nu2 =    0.00000000       1.00000000       0.00000000    
      nu3 =    0.00000000       0.00000000       1.00000000    
      x:    130.90000000000001     
      y:    79.999999999999986     
      depth:    0.0000000000000000       m
      z:    0.0000000000000000     



 station #           15     DB    X58
      original latitude:    79.9400024    
      original longitude:    129.940002    
      original x:    129.940002    
      original y:    79.9400024    
      original depth:    0.00000000      m
      horizontal distance:    5.20600453E-02
      target x, y, z:    129.940002       79.9400024       0.00000000    
      closest estimate found:    0.00000000      m away

      receiver located in slice            1
                       in element         1235
                       in elastic domain
      at coordinates: 
      xi    =   0.65666666666666629     
      eta   =   0.33083333333333320     
      gamma =    1.0000000000000000     
      rotation matrix: 
      nu1 =    1.00000000       0.00000000       0.00000000    
      nu2 =    0.00000000       1.00000000       0.00000000    
      nu3 =    0.00000000       0.00000000       1.00000000    
      x:    129.94000000000000     
      y:    79.939999999999998     
      depth:    0.0000000000000000       m
      z:    0.0000000000000000     



 station #           16     DB    X59
      original latitude:    79.9599991    
      original longitude:    128.919998    
      original x:    128.919998    
      original y:    79.9599991    
      original depth:    0.00000000      m
      horizontal distance:    5.10521792E-02
      target x, y, z:    128.919998       79.9599991       0.00000000    
      closest estimate found:    1.42108547E-14  m away

      receiver located in slice            1
                       in element         1235
                       in elastic domain
      at coordinates: 
      xi    =   0.48666666666666458     
      eta   =   0.33166666666666633     
      gamma =    1.0000000000000000     
      rotation matrix: 
      nu1 =    1.00000000       0.00000000       0.00000000    
      nu2 =    0.00000000       1.00000000       0.00000000    
      nu3 =    0.00000000       0.00000000       1.00000000    
      x:    128.91999999999999     
      y:    79.959999999999980     
      depth:    0.0000000000000000       m
      z:    0.0000000000000000     



 station #           17     DB    X60
      original latitude:    79.9899979    
      original longitude:    127.910004    
      original x:    127.910004    
      original y:    79.9899979    
      original depth:    0.00000000      m
      horizontal distance:    5.00561148E-02
      target x, y, z:    127.910004       79.9899979       0.00000000    
      closest estimate found:    1.42108547E-14  m away

      receiver located in slice            1
                       in element         1235
                       in elastic domain
      at coordinates: 
      xi    =   0.31833333333333275     
      eta   =   0.33291666666666642     
      gamma =    1.0000000000000000     
      rotation matrix: 
      nu1 =    1.00000000       0.00000000       0.00000000    
      nu2 =    0.00000000       1.00000000       0.00000000    
      nu3 =    0.00000000       0.00000000       1.00000000    
      x:    127.91000000000000     
      y:    79.989999999999981     
      depth:    0.0000000000000000       m
      z:    0.0000000000000000     



 station #           18     DB    X61
      original latitude:    80.0100021    
      original longitude:    126.889999    
      original x:    126.889999    
      original y:    80.0100021    
      original depth:    0.00000000      m
      horizontal distance:    4.90493029E-02
      target x, y, z:    126.889999       80.0100021       0.00000000    
      closest estimate found:    1.42108547E-14  m away

      receiver located in slice            1
                       in element         1235
                       in elastic domain
      at coordinates: 
      xi    =   0.14833333333333104     
      eta   =   0.33375000000000016     
      gamma =    1.0000000000000000     
      rotation matrix: 
      nu1 =    1.00000000       0.00000000       0.00000000    
      nu2 =    0.00000000       1.00000000       0.00000000    
      nu3 =    0.00000000       0.00000000       1.00000000    
      x:    126.88999999999999     
      y:    80.010000000000005     
      depth:    0.0000000000000000       m
      z:    0.0000000000000000     



 station #           19     DB    X62
      original latitude:    79.9499969    
      original longitude:    125.930000    
      original x:    125.930000    
      original y:    79.9499969    
      original depth:    0.00000000      m
      horizontal distance:    4.80907112E-02
      target x, y, z:    125.930000       79.9499969       0.00000000    
      closest estimate found:    1.42108547E-14  m away

      receiver located in slice            1
                       in element         1235
                       in elastic domain
      at coordinates: 
      xi    =   -1.1666666666665529E-002
      eta   =   0.33125000000000004     
      gamma =    1.0000000000000000     
      rotation matrix: 
      nu1 =    1.00000000       0.00000000       0.00000000    
      nu2 =    0.00000000       1.00000000       0.00000000    
      nu3 =    0.00000000       0.00000000       1.00000000    
      x:    125.93000000000001     
      y:    79.950000000000017     
      depth:    0.0000000000000000       m
      z:    0.0000000000000000     



 station #           20     DB    X63
      original latitude:    79.9700012    
      original longitude:    124.919998    
      original x:    124.919998    
      original y:    79.9700012    
      original depth:    0.00000000      m
      horizontal distance:    4.70946394E-02
      target x, y, z:    124.919998       79.9700012       0.00000000    
      closest estimate found:    0.00000000      m away

      receiver located in slice            1
                       in element         1235
                       in elastic domain
      at coordinates: 
      xi    =  -0.17999999999999736     
      eta   =   0.33208333333333323     
      gamma =    1.0000000000000000     
      rotation matrix: 
      nu1 =    1.00000000       0.00000000       0.00000000    
      nu2 =    0.00000000       1.00000000       0.00000000    
      nu3 =    0.00000000       0.00000000       1.00000000    
      x:    124.92000000000000     
      y:    79.969999999999999     
      depth:    0.0000000000000000       m
      z:    0.0000000000000000     



 station #           21     DB    X64
      original latitude:    79.9899979    
      original longitude:    123.900002    
      original x:    123.900002    
      original y:    79.9899979    
      original depth:    0.00000000      m
      horizontal distance:    4.60892990E-02
      target x, y, z:    123.900002       79.9899979       0.00000000    
      closest estimate found:    0.00000000      m away

      receiver located in slice            1
                       in element         1235
                       in elastic domain
      at coordinates: 
      xi    =  -0.34999999999999909     
      eta   =   0.33291666666666642     
      gamma =    1.0000000000000000     
      rotation matrix: 
      nu1 =    1.00000000       0.00000000       0.00000000    
      nu2 =    0.00000000       1.00000000       0.00000000    
      nu3 =    0.00000000       0.00000000       1.00000000    
      x:    123.90000000000001     
      y:    79.989999999999995     
      depth:    0.0000000000000000       m
      z:    0.0000000000000000     



 station #           22     DB    X65
      original latitude:    79.9300003    
      original longitude:    122.940002    
      original x:    122.940002    
      original y:    79.9300003    
      original depth:    0.00000000      m
      horizontal distance:    4.51314636E-02
      target x, y, z:    122.940002       79.9300003       0.00000000    
      closest estimate found:    0.00000000      m away

      receiver located in slice            1
                       in element         1235
                       in elastic domain
      at coordinates: 
      xi    =  -0.51000000000000045     
      eta   =   0.33041666666666691     
      gamma =    1.0000000000000000     
      rotation matrix: 
      nu1 =    1.00000000       0.00000000       0.00000000    
      nu2 =    0.00000000       1.00000000       0.00000000    
      nu3 =    0.00000000       0.00000000       1.00000000    
      x:    122.94000000000000     
      y:    79.930000000000007     
      depth:    0.0000000000000000       m
      z:    0.0000000000000000     



 station #           23     DB    X66
      original latitude:    79.9499969    
      original longitude:    121.930000    
      original x:    121.930000    
      original y:    79.9499969    
      original depth:    0.00000000      m
      horizontal distance:    4.41370197E-02
      target x, y, z:    121.930000       79.9499969       0.00000000    
      closest estimate found:    2.00971831E-14  m away

      receiver located in slice            1
                       in element         1235
                       in elastic domain
      at coordinates: 
      xi    =  -0.67833333333333223     
      eta   =   0.33125000000000066     
      gamma =    1.0000000000000000     
      rotation matrix: 
      nu1 =    1.00000000       0.00000000       0.00000000    
      nu2 =    0.00000000       1.00000000       0.00000000    
      nu3 =    0.00000000       0.00000000       1.00000000    
      x:    121.93000000000002     
      y:    79.950000000000017     
      depth:    0.0000000000000000       m
      z:    0.0000000000000000     



 station #           24     DB    X67
      original latitude:    79.9800034    
      original longitude:    120.910004    
      original x:    120.910004    
      original y:    79.9800034    
      original depth:    0.00000000      m
      horizontal distance:    4.31350656E-02
      target x, y, z:    120.910004       79.9800034       0.00000000    
      closest estimate found:    2.00971831E-14  m away

      receiver located in slice            1
                       in element         1235
                       in elastic domain
      at coordinates: 
      xi    =  -0.84833333333333627     
      eta   =   0.33250000000000013     
      gamma =    1.0000000000000000     
      rotation matrix: 
      nu1 =    1.00000000       0.00000000       0.00000000    
      nu2 =    0.00000000       1.00000000       0.00000000    
      nu3 =    0.00000000       0.00000000       1.00000000    
      x:    120.90999999999998     
      y:    79.979999999999990     
      depth:    0.0000000000000000       m
      z:    0.0000000000000000     



 station #           25     DB    X68
      original latitude:    80.0000000    
      original longitude:    119.889999    
      original x:    119.889999    
      original y:    80.0000000    
      original depth:    0.00000000      m
      horizontal distance:    4.21323292E-02
      target x, y, z:    119.889999       80.0000000       0.00000000    
      closest estimate found:    1.42108547E-14  m away

      receiver located in slice            1
                       in element         1234
                       in elastic domain
      at coordinates: 
      xi    =   0.98166666666666680     
      eta   =   0.33333333333333326     
      gamma =    1.0000000000000000     
      rotation matrix: 
      nu1 =    1.00000000       0.00000000       0.00000000    
      nu2 =    0.00000000       1.00000000       0.00000000    
      nu3 =    0.00000000       0.00000000       1.00000000    
      x:    119.89000000000000     
      y:    79.999999999999986     
      depth:    0.0000000000000000       m
      z:    0.0000000000000000     



 station #           26     DB    X69
      original latitude:    79.9400024    
      original longitude:    118.940002    
      original x:    118.940002    
      original y:    79.9400024    
      original depth:    0.00000000      m
      horizontal distance:    4.11857814E-02
      target x, y, z:    118.940002       79.9400024       0.00000000    
      closest estimate found:    3.17764376E-14  m away

      receiver located in slice            1
                       in element         1234
                       in elastic domain
      at coordinates: 
      xi    =   0.82333333333333292     
      eta   =   0.33083333333333320     
      gamma =    1.0000000000000000     
      rotation matrix: 
      nu1 =    1.00000000       0.00000000       0.00000000    
      nu2 =    0.00000000       1.00000000       0.00000000    
      nu3 =    0.00000000       0.00000000       1.00000000    
      x:    118.93999999999997     
      y:    79.939999999999984     
      depth:    0.0000000000000000       m
      z:    0.0000000000000000     



 station #           27     DB    X70
      original latitude:    79.9599991    
      original longitude:    117.919998    
      original x:    117.919998    
      original y:    79.9599991    
      original depth:    0.00000000      m
      horizontal distance:    4.01843861E-02
      target x, y, z:    117.919998       79.9599991       0.00000000    
      closest estimate found:    2.84217094E-14  m away

      receiver located in slice            1
                       in element         1234
                       in elastic domain
      at coordinates: 
      xi    =   0.65333333333333132     
      eta   =   0.33166666666666567     
      gamma =    1.0000000000000000     
      rotation matrix: 
      nu1 =    1.00000000       0.00000000       0.00000000    
      nu2 =    0.00000000       1.00000000       0.00000000    
      nu3 =    0.00000000       0.00000000       1.00000000    
      x:    117.92000000000000     
      y:    79.959999999999965     
      depth:    0.0000000000000000       m
      z:    0.0000000000000000     



 station #           28     DB    X71
      original latitude:    79.9800034    
      original longitude:    116.900002    
      original x:    116.900002    
      original y:    79.9800034    
      original depth:    0.00000000      m
      horizontal distance:    3.91839631E-02
      target x, y, z:    116.900002       79.9800034       0.00000000    
      closest estimate found:    2.00971831E-14  m away

      receiver located in slice            1
                       in element         1234
                       in elastic domain
      at coordinates: 
      xi    =   0.48333333333333428     
      eta   =   0.33250000000000013     
      gamma =    1.0000000000000000     
      rotation matrix: 
      nu1 =    1.00000000       0.00000000       0.00000000    
      nu2 =    0.00000000       1.00000000       0.00000000    
      nu3 =    0.00000000       0.00000000       1.00000000    
      x:    116.89999999999999     
      y:    79.979999999999990     
      depth:    0.0000000000000000       m
      z:    0.0000000000000000     



 station #           29     DB    X72
      original latitude:    80.0000000    
      original longitude:    115.889999    
      original x:    115.889999    
      original y:    80.0000000    
      original depth:    0.00000000      m
      horizontal distance:    3.81944142E-02
      target x, y, z:    115.889999       80.0000000       0.00000000    
      closest estimate found:    1.42108547E-14  m away

      receiver located in slice            1
                       in element         1234
                       in elastic domain
      at coordinates: 
      xi    =   0.31500000000000006     
      eta   =   0.33333333333333326     
      gamma =    1.0000000000000000     
      rotation matrix: 
      nu1 =    1.00000000       0.00000000       0.00000000    
      nu2 =    0.00000000       1.00000000       0.00000000    
      nu3 =    0.00000000       0.00000000       1.00000000    
      x:    115.88999999999999     
      y:    80.000000000000000     
      depth:    0.0000000000000000       m
      z:    0.0000000000000000     



 station #           30     DB    X116
      original latitude:    78.0000000    
      original longitude:    143.910004    
      original x:    143.910004    
      original y:    78.0000000    
      original depth:    0.00000000      m
      horizontal distance:    6.57534450E-02
      target x, y, z:    143.910004       78.0000000       0.00000000    
      closest estimate found:    2.84217094E-14  m away

      receiver located in slice            1
                       in element         1236
                       in elastic domain
      at coordinates: 
      xi    =   0.98499999999999943     
      eta   =   0.25000000000000000     
      gamma =    1.0000000000000000     
      rotation matrix: 
      nu1 =    1.00000000       0.00000000       0.00000000    
      nu2 =    0.00000000       1.00000000       0.00000000    
      nu3 =    0.00000000       0.00000000       1.00000000    
      x:    143.91000000000003     
      y:    78.000000000000000     
      depth:    0.0000000000000000       m
      z:    0.0000000000000000     



 station #           31     DB    X117
      original latitude:    78.0199966    
      original longitude:    142.899994    
      original x:    142.899994    
      original y:    78.0199966    
      original depth:    0.00000000      m
      horizontal distance:    6.47480190E-02
      target x, y, z:    142.899994       78.0199966       0.00000000    
      closest estimate found:    1.42108547E-14  m away

      receiver located in slice            1
                       in element         1236
                       in elastic domain
      at coordinates: 
      xi    =   0.81666666666666743     
      eta   =   0.25083333333333374     
      gamma =    1.0000000000000000     
      rotation matrix: 
      nu1 =    1.00000000       0.00000000       0.00000000    
      nu2 =    0.00000000       1.00000000       0.00000000    
      nu3 =    0.00000000       0.00000000       1.00000000    
      x:    142.90000000000001     
      y:    78.020000000000010     
      depth:    0.0000000000000000       m
      z:    0.0000000000000000     



 station #           32     DB    X118
      original latitude:    77.9599991    
      original longitude:    141.940002    
      original x:    141.940002    
      original y:    77.9599991    
      original depth:    0.00000000      m
      horizontal distance:    6.37862682E-02
      target x, y, z:    141.940002       77.9599991       0.00000000    
      closest estimate found:    0.00000000      m away

      receiver located in slice            1
                       in element         1236
                       in elastic domain
      at coordinates: 
      xi    =   0.65666666666666618     
      eta   =   0.24833333333333307     
      gamma =    1.0000000000000000     
      rotation matrix: 
      nu1 =    1.00000000       0.00000000       0.00000000    
      nu2 =    0.00000000       1.00000000       0.00000000    
      nu3 =    0.00000000       0.00000000       1.00000000    
      x:    141.94000000000000     
      y:    77.959999999999994     
      depth:    0.0000000000000000       m
      z:    0.0000000000000000     



 station #           33     DB    X119
      original latitude:    77.9800034    
      original longitude:    140.919998    
      original x:    140.919998    
      original y:    77.9800034    
      original depth:    0.00000000      m
      horizontal distance:    6.27710521E-02
      target x, y, z:    140.919998       77.9800034       0.00000000    
      closest estimate found:    1.42108547E-14  m away

      receiver located in slice            1
                       in element         1236
                       in elastic domain
      at coordinates: 
      xi    =   0.48666666666666442     
      eta   =   0.24916666666666740     
      gamma =    1.0000000000000000     
      rotation matrix: 
      nu1 =    1.00000000       0.00000000       0.00000000    
      nu2 =    0.00000000       1.00000000       0.00000000    
      nu3 =    0.00000000       0.00000000       1.00000000    
      x:    140.91999999999999     
      y:    77.980000000000018     
      depth:    0.0000000000000000       m
      z:    0.0000000000000000     



 station #           34     DB    X120
      original latitude:    78.0000000    
      original longitude:    139.910004    
      original x:    139.910004    
      original y:    78.0000000    
      original depth:    0.00000000      m
      horizontal distance:    6.17659725E-02
      target x, y, z:    139.910004       78.0000000       0.00000000    
      closest estimate found:    0.00000000      m away

      receiver located in slice            1
                       in element         1236
                       in elastic domain
      at coordinates: 
      xi    =   0.31833333333333275     
      eta   =   0.25000000000000000     
      gamma =    1.0000000000000000     
      rotation matrix: 
      nu1 =    1.00000000       0.00000000       0.00000000    
      nu2 =    0.00000000       1.00000000       0.00000000    
      nu3 =    0.00000000       0.00000000       1.00000000    
      x:    139.91000000000000     
      y:    78.000000000000000     
      depth:    0.0000000000000000       m
      z:    0.0000000000000000     



 station #           35     DB    X121
      original latitude:    78.0299988    
      original longitude:    138.889999    
      original x:    138.889999    
      original y:    78.0299988    
      original depth:    0.00000000      m
      horizontal distance:    6.07519262E-02
      target x, y, z:    138.889999       78.0299988       0.00000000    
      closest estimate found:    0.00000000      m away

      receiver located in slice            1
                       in element         1236
                       in elastic domain
      at coordinates: 
      xi    =   0.14833333333333104     
      eta   =   0.25125000000000003     
      gamma =    1.0000000000000000     
      rotation matrix: 
      nu1 =    1.00000000       0.00000000       0.00000000    
      nu2 =    0.00000000       1.00000000       0.00000000    
      nu3 =    0.00000000       0.00000000       1.00000000    
      x:    138.88999999999999     
      y:    78.030000000000001     
      depth:    0.0000000000000000       m
      z:    0.0000000000000000     



 station #           36     DB    X122
      original latitude:    77.9700012    
      original longitude:    137.929993    
      original x:    137.929993    
      original y:    77.9700012    
      original depth:    0.00000000      m
      horizontal distance:    5.97902723E-02
      target x, y, z:    137.929993       77.9700012       0.00000000    
      closest estimate found:    0.00000000      m away

      receiver located in slice            1
                       in element         1236
                       in elastic domain
      at coordinates: 
      xi    =   -1.1666666666670267E-002
      eta   =   0.24874999999999994     
      gamma =    1.0000000000000000     
      rotation matrix: 
      nu1 =    1.00000000       0.00000000       0.00000000    
      nu2 =    0.00000000       1.00000000       0.00000000    
      nu3 =    0.00000000       0.00000000       1.00000000    
      x:    137.93000000000001     
      y:    77.969999999999999     
      depth:    0.0000000000000000       m
      z:    0.0000000000000000     



 station #           37     DB    X123
      original latitude:    77.9899979    
      original longitude:    136.919998    
      original x:    136.919998    
      original y:    77.9899979    
      original depth:    0.00000000      m
      horizontal distance:    5.87855913E-02
      target x, y, z:    136.919998       77.9899979       0.00000000    
      closest estimate found:    2.84217094E-14  m away

      receiver located in slice            1
                       in element         1236
                       in elastic domain
      at coordinates: 
      xi    =  -0.18000000000000208     
      eta   =   0.24958333333333310     
      gamma =    1.0000000000000000     
      rotation matrix: 
      nu1 =    1.00000000       0.00000000       0.00000000    
      nu2 =    0.00000000       1.00000000       0.00000000    
      nu3 =    0.00000000       0.00000000       1.00000000    
      x:    136.92000000000002     
      y:    77.989999999999995     
      depth:    0.0000000000000000       m
      z:    0.0000000000000000     



 station #           38     DB    X124
      original latitude:    78.0100021    
      original longitude:    135.899994    
      original x:    135.899994    
      original y:    78.0100021    
      original depth:    0.00000000      m
      horizontal distance:    5.77711426E-02
      target x, y, z:    135.899994       78.0100021       0.00000000    
      closest estimate found:    1.42108547E-14  m away

      receiver located in slice            1
                       in element         1236
                       in elastic domain
      at coordinates: 
      xi    =  -0.34999999999999937     
      eta   =   0.25041666666666684     
      gamma =    1.0000000000000000     
      rotation matrix: 
      nu1 =    1.00000000       0.00000000       0.00000000    
      nu2 =    0.00000000       1.00000000       0.00000000    
      nu3 =    0.00000000       0.00000000       1.00000000    
      x:    135.90000000000001     
      y:    78.009999999999991     
      depth:    0.0000000000000000       m
      z:    0.0000000000000000     



 station #           39     DB    X125
      original latitude:    77.9499969    
      original longitude:    134.940002    
      original x:    134.940002    
      original y:    77.9499969    
      original depth:    0.00000000      m
      horizontal distance:    5.68095781E-02
      target x, y, z:    134.940002       77.9499969       0.00000000    
      closest estimate found:    0.00000000      m away

      receiver located in slice            1
                       in element         1236
                       in elastic domain
      at coordinates: 
      xi    =  -0.51000000000000068     
      eta   =   0.24791666666666679     
      gamma =    1.0000000000000000     
      rotation matrix: 
      nu1 =    1.00000000       0.00000000       0.00000000    
      nu2 =    0.00000000       1.00000000       0.00000000    
      nu3 =    0.00000000       0.00000000       1.00000000    
      x:    134.94000000000000     
      y:    77.950000000000003     
      depth:    0.0000000000000000       m
      z:    0.0000000000000000     



 station #           40     DB    X126
      original latitude:    77.9700012    
      original longitude:    133.929993    
      original x:    133.929993    
      original y:    77.9700012    
      original depth:    0.00000000      m
      horizontal distance:    5.58053441E-02
      target x, y, z:    133.929993       77.9700012       0.00000000    
      closest estimate found:    0.00000000      m away

      receiver located in slice            1
                       in element         1236
                       in elastic domain
      at coordinates: 
      xi    =  -0.67833333333333257     
      eta   =   0.24874999999999994     
      gamma =    1.0000000000000000     
      rotation matrix: 
      nu1 =    1.00000000       0.00000000       0.00000000    
      nu2 =    0.00000000       1.00000000       0.00000000    
      nu3 =    0.00000000       0.00000000       1.00000000    
      x:    133.93000000000001     
      y:    77.969999999999999     
      depth:    0.0000000000000000       m
      z:    0.0000000000000000     



 station #           41     DB    X127
      original latitude:    77.9899979    
      original longitude:    132.910004    
      original x:    132.910004    
      original y:    77.9899979    
      original depth:    0.00000000      m
      horizontal distance:    5.47913723E-02
      target x, y, z:    132.910004       77.9899979       0.00000000    
      closest estimate found:    3.17764376E-14  m away

      receiver located in slice            1
                       in element         1236
                       in elastic domain
      at coordinates: 
      xi    =  -0.84833333333333394     
      eta   =   0.24958333333333252     
      gamma =    1.0000000000000000     
      rotation matrix: 
      nu1 =    1.00000000       0.00000000       0.00000000    
      nu2 =    0.00000000       1.00000000       0.00000000    
      nu3 =    0.00000000       0.00000000       1.00000000    
      x:    132.91000000000003     
      y:    77.989999999999981     
      depth:    0.0000000000000000       m
      z:    0.0000000000000000     



 station #           42     DB    X128
      original latitude:    78.0199966    
      original longitude:    131.899994    
      original x:    131.899994    
      original y:    78.0199966    
      original depth:    0.00000000      m
      horizontal distance:    5.37885316E-02
      target x, y, z:    131.899994       78.0199966       0.00000000    
      closest estimate found:    5.68434189E-14  m away

      receiver located in slice            1
                       in element         1235
                       in elastic domain
      at coordinates: 
      xi    =   0.98333333333332940     
      eta   =   0.25083333333333313     
      gamma =    1.0000000000000000     
      rotation matrix: 
      nu1 =    1.00000000       0.00000000       0.00000000    
      nu2 =    0.00000000       1.00000000       0.00000000    
      nu3 =    0.00000000       0.00000000       1.00000000    
      x:    131.89999999999995     
      y:    78.019999999999996     
      depth:    0.0000000000000000       m
      z:    0.0000000000000000     



 station #           43     DB    X129
      original latitude:    77.9599991    
      original longitude:    130.940002    
      original x:    130.940002    
      original y:    77.9599991    
      original depth:    0.00000000      m
      horizontal distance:    5.28271534E-02
      target x, y, z:    130.940002       77.9599991       0.00000000    
      closest estimate found:    0.00000000      m away

      receiver located in slice            1
                       in element         1235
                       in elastic domain
      at coordinates: 
      xi    =   0.82333333333333281     
      eta   =   0.24833333333333307     
      gamma =    1.0000000000000000     
      rotation matrix: 
      nu1 =    1.00000000       0.00000000       0.00000000    
      nu2 =    0.00000000       1.00000000       0.00000000    
      nu3 =    0.00000000       0.00000000       1.00000000    
      x:    130.94000000000000     
      y:    77.959999999999994     
      depth:    0.0000000000000000       m
      z:    0.0000000000000000     



 station #           44     DB    X130
      original latitude:    77.9800034    
      original longitude:    129.919998    
      original x:    129.919998    
      original y:    77.9800034    
      original depth:    0.00000000      m
      horizontal distance:    5.18137552E-02
      target x, y, z:    129.919998       77.9800034       0.00000000    
      closest estimate found:    0.00000000      m away

      receiver located in slice            1
                       in element         1235
                       in elastic domain
      at coordinates: 
      xi    =   0.65333333333333110     
      eta   =   0.24916666666666681     
      gamma =    1.0000000000000000     
      rotation matrix: 
      nu1 =    1.00000000       0.00000000       0.00000000    
      nu2 =    0.00000000       1.00000000       0.00000000    
      nu3 =    0.00000000       0.00000000       1.00000000    
      x:    129.91999999999999     
      y:    77.980000000000004     
      depth:    0.0000000000000000       m
      z:    0.0000000000000000     



 station #           45     DB    X131
      original latitude:    78.0000000    
      original longitude:    128.910004    
      original x:    128.910004    
      original y:    78.0000000    
      original depth:    0.00000000      m
      horizontal distance:    5.08105829E-02
      target x, y, z:    128.910004       78.0000000       0.00000000    
      closest estimate found:    0.00000000      m away

      receiver located in slice            1
                       in element         1235
                       in elastic domain
      at coordinates: 
      xi    =   0.48499999999999932     
      eta   =   0.25000000000000000     
      gamma =    1.0000000000000000     
      rotation matrix: 
      nu1 =    1.00000000       0.00000000       0.00000000    
      nu2 =    0.00000000       1.00000000       0.00000000    
      nu3 =    0.00000000       0.00000000       1.00000000    
      x:    128.91000000000000     
      y:    78.000000000000000     
      depth:    0.0000000000000000       m
      z:    0.0000000000000000     



 station #           46     DB    X132
      original latitude:    77.9400024    
      original longitude:    127.949997    
      original x:    127.949997    
      original y:    77.9400024    
      original depth:    0.00000000      m
      horizontal distance:    4.98493761E-02
      target x, y, z:    127.949997       77.9400024       0.00000000    
      closest estimate found:    1.42108547E-14  m away

      receiver located in slice            1
                       in element         1235
                       in elastic domain
      at coordinates: 
      xi    =   0.32500000000000046     
      eta   =   0.24749999999999989     
      gamma =    1.0000000000000000     
      rotation matrix: 
      nu1 =    1.00000000       0.00000000       0.00000000    
      nu2 =    0.00000000       1.00000000       0.00000000    
      nu3 =    0.00000000       0.00000000       1.00000000    
      x:    127.94999999999999     
      y:    77.939999999999998     
      depth:    0.0000000000000000       m
      z:    0.0000000000000000     



 station #           47     DB    X133
      original latitude:    77.9599991    
      original longitude:    126.930000    
      original x:    126.930000    
      original y:    77.9599991    
      original depth:    0.00000000      m
      horizontal distance:    4.88366298E-02
      target x, y, z:    126.930000       77.9599991       0.00000000    
      closest estimate found:    0.00000000      m away

      receiver located in slice            1
                       in element         1235
                       in elastic domain
      at coordinates: 
      xi    =   0.15500000000000114     
      eta   =   0.24833333333333307     
      gamma =    1.0000000000000000     
      rotation matrix: 
      nu1 =    1.00000000       0.00000000       0.00000000    
      nu2 =    0.00000000       1.00000000       0.00000000    
      nu3 =    0.00000000       0.00000000       1.00000000    
      x:    126.93000000000001     
      y:    77.959999999999994     
      depth:    0.0000000000000000       m
      z:    0.0000000000000000     



 station #           48     DB    X134
      original latitude:    77.9800034    
      original longitude:    125.910004    
      original x:    125.910004    
      original y:    77.9800034    
      original depth:    0.00000000      m
      horizontal distance:    4.78242002E-02
      target x, y, z:    125.910004       77.9800034       0.00000000    
      closest estimate found:    1.42108547E-14  m away

      receiver located in slice            1
                       in element         1235
                       in elastic domain
      at coordinates: 
      xi    =   -1.5000000000000568E-002
      eta   =   0.24916666666666681     
      gamma =    1.0000000000000000     
      rotation matrix: 
      nu1 =    1.00000000       0.00000000       0.00000000    
      nu2 =    0.00000000       1.00000000       0.00000000    
      nu3 =    0.00000000       0.00000000       1.00000000    
      x:    125.91000000000000     
      y:    77.979999999999990     
      depth:    0.0000000000000000       m
      z:    0.0000000000000000     



 station #           49     DB    X135
      original latitude:    78.0100021    
      original longitude:    124.900002    
      original x:    124.900002    
      original y:    78.0100021    
      original depth:    0.00000000      m
      horizontal distance:    4.68231253E-02
      target x, y, z:    124.900002       78.0100021       0.00000000    
      closest estimate found:    0.00000000      m away

      receiver located in slice            1
                       in element         1235
                       in elastic domain
      at coordinates: 
      xi    =  -0.18333333333333238     
      eta   =   0.25041666666666684     
      gamma =    1.0000000000000000     
      rotation matrix: 
      nu1 =    1.00000000       0.00000000       0.00000000    
      nu2 =    0.00000000       1.00000000       0.00000000    
      nu3 =    0.00000000       0.00000000       1.00000000    
      x:    124.90000000000001     
      y:    78.010000000000005     
      depth:    0.0000000000000000       m
      z:    0.0000000000000000     



 station #           50     DB    X136
      original latitude:    77.9499969    
      original longitude:    123.940002    
      original x:    123.940002    
      original y:    77.9499969    
      original depth:    0.00000000      m
      horizontal distance:    4.58622761E-02
      target x, y, z:    123.940002       77.9499969       0.00000000    
      closest estimate found:    0.00000000      m away

      receiver located in slice            1
                       in element         1235
                       in elastic domain
      at coordinates: 
      xi    =  -0.34333333333333377     
      eta   =   0.24791666666666679     
      gamma =    1.0000000000000000     
      rotation matrix: 
      nu1 =    1.00000000       0.00000000       0.00000000    
      nu2 =    0.00000000       1.00000000       0.00000000    
      nu3 =    0.00000000       0.00000000       1.00000000    
      x:    123.94000000000000     
      y:    77.950000000000003     
      depth:    0.0000000000000000       m
      z:    0.0000000000000000     



 station #           51     DB    X137
      original latitude:    77.9700012    
      original longitude:    122.919998    
      original x:    122.919998    
      original y:    77.9700012    
      original depth:    0.00000000      m
      horizontal distance:    4.48506959E-02
      target x, y, z:    122.919998       77.9700012       0.00000000    
      closest estimate found:    0.00000000      m away

      receiver located in slice            1
                       in element         1235
                       in elastic domain
      at coordinates: 
      xi    =  -0.51333333333333309     
      eta   =   0.24874999999999994     
      gamma =    1.0000000000000000     
      rotation matrix: 
      nu1 =    1.00000000       0.00000000       0.00000000    
      nu2 =    0.00000000       1.00000000       0.00000000    
      nu3 =    0.00000000       0.00000000       1.00000000    
      x:    122.92000000000000     
      y:    77.969999999999999     
      depth:    0.0000000000000000       m
      z:    0.0000000000000000     



 station #           52     DB    X138
      original latitude:    77.9899979    
      original longitude:    121.910004    
      original x:    121.910004    
      original y:    77.9899979    
      original depth:    0.00000000      m
      horizontal distance:    4.38494533E-02
      target x, y, z:    121.910004       77.9899979       0.00000000    
      closest estimate found:    1.42108547E-14  m away

      receiver located in slice            1
                       in element         1235
                       in elastic domain
      at coordinates: 
      xi    =  -0.68166666666666731     
      eta   =   0.24958333333333310     
      gamma =    1.0000000000000000     
      rotation matrix: 
      nu1 =    1.00000000       0.00000000       0.00000000    
      nu2 =    0.00000000       1.00000000       0.00000000    
      nu3 =    0.00000000       0.00000000       1.00000000    
      x:    121.91000000000000     
      y:    77.989999999999981     
      depth:    0.0000000000000000       m
      z:    0.0000000000000000     



 station #           53     DB    X139
      original latitude:    78.0100021    
      original longitude:    120.879997    
      original x:    120.879997    
      original y:    78.0100021    
      original depth:    0.00000000      m
      horizontal distance:    4.28287685E-02
      target x, y, z:    120.879997       78.0100021       0.00000000    
      closest estimate found:    0.00000000      m away

      receiver located in slice            1
                       in element         1235
                       in elastic domain
      at coordinates: 
      xi    =  -0.85333333333333417     
      eta   =   0.25041666666666684     
      gamma =    1.0000000000000000     
      rotation matrix: 
      nu1 =    1.00000000       0.00000000       0.00000000    
      nu2 =    0.00000000       1.00000000       0.00000000    
      nu3 =    0.00000000       0.00000000       1.00000000    
      x:    120.88000000000000     
      y:    78.010000000000005     
      depth:    0.0000000000000000       m
      z:    0.0000000000000000     



 station #           54     DB    X140
      original latitude:    77.9499969    
      original longitude:    119.930000    
      original x:    119.930000    
      original y:    77.9499969    
      original depth:    0.00000000      m
      horizontal distance:    4.18783538E-02
      target x, y, z:    119.930000       77.9499969       0.00000000    
      closest estimate found:    0.00000000      m away

      receiver located in slice            1
                       in element         1234
                       in elastic domain
      at coordinates: 
      xi    =   0.98833333333333451     
      eta   =   0.24791666666666679     
      gamma =    1.0000000000000000     
      rotation matrix: 
      nu1 =    1.00000000       0.00000000       0.00000000    
      nu2 =    0.00000000       1.00000000       0.00000000    
      nu3 =    0.00000000       0.00000000       1.00000000    
      x:    119.93000000000001     
      y:    77.950000000000003     
      depth:    0.0000000000000000       m
      z:    0.0000000000000000     



 station #           55     DB    X141
      original latitude:    77.9700012    
      original longitude:    118.910004    
      original x:    118.910004    
      original y:    77.9700012    
      original depth:    0.00000000      m
      horizontal distance:    4.08682488E-02
      target x, y, z:    118.910004       77.9700012       0.00000000    
      closest estimate found:    2.00971831E-14  m away

      receiver located in slice            1
                       in element         1234
                       in elastic domain
      at coordinates: 
      xi    =   0.81833333333333502     
      eta   =   0.24874999999999994     
      gamma =    1.0000000000000000     
      rotation matrix: 
      nu1 =    1.00000000       0.00000000       0.00000000    
      nu2 =    0.00000000       1.00000000       0.00000000    
      nu3 =    0.00000000       0.00000000       1.00000000    
      x:    118.91000000000001     
      y:    77.970000000000013     
      depth:    0.0000000000000000       m
      z:    0.0000000000000000     



 station #           56     DB    X142
      original latitude:    77.9899979    
      original longitude:    117.889999    
      original x:    117.889999    
      original y:    77.9899979    
      original depth:    0.00000000      m
      horizontal distance:    3.98586579E-02
      target x, y, z:    117.889999       77.9899979       0.00000000    
      closest estimate found:    1.42108547E-14  m away

      receiver located in slice            1
                       in element         1234
                       in elastic domain
      at coordinates: 
      xi    =   0.64833333333333332     
      eta   =   0.24958333333333310     
      gamma =    1.0000000000000000     
      rotation matrix: 
      nu1 =    1.00000000       0.00000000       0.00000000    
      nu2 =    0.00000000       1.00000000       0.00000000    
      nu3 =    0.00000000       0.00000000       1.00000000    
      x:    117.89000000000001     
      y:    77.989999999999995     
      depth:    0.0000000000000000       m
      z:    0.0000000000000000     



 station #           57     DB    X143
      original latitude:    77.9300003    
      original longitude:    116.940002    
      original x:    116.940002    
      original y:    77.9300003    
      original depth:    0.00000000      m
      horizontal distance:    3.89087275E-02
      target x, y, z:    116.940002       77.9300003       0.00000000    
      closest estimate found:    1.42108547E-14  m away

      receiver located in slice            1
                       in element         1234
                       in elastic domain
      at coordinates: 
      xi    =   0.48999999999999944     
      eta   =   0.24708333333333360     
      gamma =    1.0000000000000000     
      rotation matrix: 
      nu1 =    1.00000000       0.00000000       0.00000000    
      nu2 =    0.00000000       1.00000000       0.00000000    
      nu3 =    0.00000000       0.00000000       1.00000000    
      x:    116.94000000000000     
      y:    77.929999999999993     
      depth:    0.0000000000000000       m
      z:    0.0000000000000000     



 station #           58     DB    X144
      original latitude:    77.9499969    
      original longitude:    115.919998    
      original x:    115.919998    
      original y:    77.9499969    
      original depth:    0.00000000      m
      horizontal distance:    3.78999338E-02
      target x, y, z:    115.919998       77.9499969       0.00000000    
      closest estimate found:    3.17764376E-14  m away

      receiver located in slice            1
                       in element         1234
                       in elastic domain
      at coordinates: 
      xi    =   0.32000000000000273     
      eta   =   0.24791666666666679     
      gamma =    1.0000000000000000     
      rotation matrix: 
      nu1 =    1.00000000       0.00000000       0.00000000    
      nu2 =    0.00000000       1.00000000       0.00000000    
      nu3 =    0.00000000       0.00000000       1.00000000    
      x:    115.92000000000003     
      y:    77.950000000000017     
      depth:    0.0000000000000000       m
      z:    0.0000000000000000     



 station #           59     DB    X188
      original latitude:    76.0299988    
      original longitude:    143.899994    
      original x:    143.899994    
      original y:    76.0299988    
      original depth:    0.00000000      m
      horizontal distance:    6.56218529E-02
      target x, y, z:    143.899994       76.0299988       0.00000000    
      closest estimate found:    0.00000000      m away

      receiver located in slice            1
                       in element         1236
                       in elastic domain
      at coordinates: 
      xi    =   0.98333333333333428     
      eta   =   0.16791666666666671     
      gamma =    1.0000000000000000     
      rotation matrix: 
      nu1 =    1.00000000       0.00000000       0.00000000    
      nu2 =    0.00000000       1.00000000       0.00000000    
      nu3 =    0.00000000       0.00000000       1.00000000    
      x:    143.90000000000001     
      y:    76.030000000000001     
      depth:    0.0000000000000000       m
      z:    0.0000000000000000     



 station #           60     DB    X189
      original latitude:    75.9700012    
      original longitude:    142.940002    
      original x:    142.940002    
      original y:    75.9700012    
      original depth:    0.00000000      m
      horizontal distance:    6.46600947E-02
      target x, y, z:    142.940002       75.9700012       0.00000000    
      closest estimate found:    0.00000000      m away

      receiver located in slice            1
                       in element         1236
                       in elastic domain
      at coordinates: 
      xi    =   0.82333333333333281     
      eta   =   0.16541666666666660     
      gamma =    1.0000000000000000     
      rotation matrix: 
      nu1 =    1.00000000       0.00000000       0.00000000    
      nu2 =    0.00000000       1.00000000       0.00000000    
      nu3 =    0.00000000       0.00000000       1.00000000    
      x:    142.94000000000000     
      y:    75.969999999999999     
      depth:    0.0000000000000000       m
      z:    0.0000000000000000     



 station #           61     DB    X190
      original latitude:    75.9899979    
      original longitude:    141.919998    
      original x:    141.919998    
      original y:    75.9899979    
      original depth:    0.00000000      m
      horizontal distance:    6.36421666E-02
      target x, y, z:    141.919998       75.9899979       0.00000000    
      closest estimate found:    2.84217094E-14  m away

      receiver located in slice            1
                       in element         1236
                       in elastic domain
      at coordinates: 
      xi    =   0.65333333333333599     
      eta   =   0.16624999999999979     
      gamma =    1.0000000000000000     
      rotation matrix: 
      nu1 =    1.00000000       0.00000000       0.00000000    
      nu2 =    0.00000000       1.00000000       0.00000000    
      nu3 =    0.00000000       0.00000000       1.00000000    
      x:    141.92000000000002     
      y:    75.989999999999995     
      depth:    0.0000000000000000       m
      z:    0.0000000000000000     



 station #           62     DB    X191
      original latitude:    76.0199966    
      original longitude:    140.910004    
      original x:    140.910004    
      original y:    76.0199966    
      original depth:    0.00000000      m
      horizontal distance:    6.26347959E-02
      target x, y, z:    140.910004       76.0199966       0.00000000    
      closest estimate found:    2.84217094E-14  m away

      receiver located in slice            1
                       in element         1236
                       in elastic domain
      at coordinates: 
      xi    =   0.48500000000000398     
      eta   =   0.16749999999999982     
      gamma =    1.0000000000000000     
      rotation matrix: 
      nu1 =    1.00000000       0.00000000       0.00000000    
      nu2 =    0.00000000       1.00000000       0.00000000    
      nu3 =    0.00000000       0.00000000       1.00000000    
      x:    140.91000000000003     
      y:    76.019999999999996     
      depth:    0.0000000000000000       m
      z:    0.0000000000000000     



 station #           63     DB    X192
      original latitude:    75.9599991    
      original longitude:    139.949997    
      original x:    139.949997    
      original y:    75.9599991    
      original depth:    0.00000000      m
      horizontal distance:    6.16730079E-02
      target x, y, z:    139.949997       75.9599991       0.00000000    
      closest estimate found:    0.00000000      m away

      receiver located in slice            1
                       in element         1236
                       in elastic domain
      at coordinates: 
      xi    =   0.32499999999999807     
      eta   =   0.16499999999999973     
      gamma =    1.0000000000000000     
      rotation matrix: 
      nu1 =    1.00000000       0.00000000       0.00000000    
      nu2 =    0.00000000       1.00000000       0.00000000    
      nu3 =    0.00000000       0.00000000       1.00000000    
      x:    139.94999999999999     
      y:    75.959999999999994     
      depth:    0.0000000000000000       m
      z:    0.0000000000000000     



 station #           64     DB    X193
      original latitude:    75.9800034    
      original longitude:    138.929993    
      original x:    138.929993    
      original y:    75.9800034    
      original depth:    0.00000000      m
      horizontal distance:    6.06552288E-02
      target x, y, z:    138.929993       75.9800034       0.00000000    
      closest estimate found:    0.00000000      m away

      receiver located in slice            1
                       in element         1236
                       in elastic domain
      at coordinates: 
      xi    =   0.15500000000000114     
      eta   =   0.16583333333333350     
      gamma =    1.0000000000000000     
      rotation matrix: 
      nu1 =    1.00000000       0.00000000       0.00000000    
      nu2 =    0.00000000       1.00000000       0.00000000    
      nu3 =    0.00000000       0.00000000       1.00000000    
      x:    138.93000000000001     
      y:    75.980000000000004     
      depth:    0.0000000000000000       m
      z:    0.0000000000000000     



 station #           65     DB    X194
      original latitude:    76.0000000    
      original longitude:    137.919998    
      original x:    137.919998    
      original y:    76.0000000    
      original depth:    0.00000000      m
      horizontal distance:    5.96475191E-02
      target x, y, z:    137.919998       76.0000000       0.00000000    
      closest estimate found:    0.00000000      m away

      receiver located in slice            1
                       in element         1236
                       in elastic domain
      at coordinates: 
      xi    =   -1.3333333333335418E-002
      eta   =   0.16666666666666666     
      gamma =    1.0000000000000000     
      rotation matrix: 
      nu1 =    1.00000000       0.00000000       0.00000000    
      nu2 =    0.00000000       1.00000000       0.00000000    
      nu3 =    0.00000000       0.00000000       1.00000000    
      x:    137.91999999999999     
      y:    76.000000000000000     
      depth:    0.0000000000000000       m
      z:    0.0000000000000000     



 station #           66     DB    X195
      original latitude:    76.0199966    
      original longitude:    136.889999    
      original x:    136.889999    
      original y:    76.0199966    
      original depth:    0.00000000      m
      horizontal distance:    5.86199202E-02
      target x, y, z:    136.889999       76.0199966       0.00000000    
      closest estimate found:    3.17764376E-14  m away

      receiver located in slice            1
                       in element         1236
                       in elastic domain
      at coordinates: 
      xi    =  -0.18500000000000227     
      eta   =   0.16750000000000040     
      gamma =    1.0000000000000000     
      rotation matrix: 
      nu1 =    1.00000000       0.00000000       0.00000000    
      nu2 =    0.00000000       1.00000000       0.00000000    
      nu3 =    0.00000000       0.00000000       1.00000000    
      x:    136.88999999999996     
      y:    76.020000000000010     
      depth:    0.0000000000000000       m
      z:    0.0000000000000000     



 station #           67     DB    X196
      original latitude:    75.9599991    
      original longitude:    135.929993    
      original x:    135.929993    
      original y:    75.9599991    
      original depth:    0.00000000      m
      horizontal distance:    5.76580986E-02
      target x, y, z:    135.929993       75.9599991       0.00000000    
      closest estimate found:    1.42108547E-14  m away

      receiver located in slice            1
                       in element         1236
                       in elastic domain
      at coordinates: 
      xi    =  -0.34499999999999914     
      eta   =   0.16499999999999973     
      gamma =    1.0000000000000000     
      rotation matrix: 
      nu1 =    1.00000000       0.00000000       0.00000000    
      nu2 =    0.00000000       1.00000000       0.00000000    
      nu3 =    0.00000000       0.00000000       1.00000000    
      x:    135.93000000000001     
      y:    75.960000000000008     
      depth:    0.0000000000000000       m
      z:    0.0000000000000000     



 station #           68     DB    X197
      original latitude:    75.9800034    
      original longitude:    134.919998    
      original x:    134.919998    
      original y:    75.9800034    
      original depth:    0.00000000      m
      horizontal distance:    5.66505529E-02
      target x, y, z:    134.919998       75.9800034       0.00000000    
      closest estimate found:    0.00000000      m away

      receiver located in slice            1
                       in element         1236
                       in elastic domain
      at coordinates: 
      xi    =  -0.51333333333333564     
      eta   =   0.16583333333333350     
      gamma =    1.0000000000000000     
      rotation matrix: 
      nu1 =    1.00000000       0.00000000       0.00000000    
      nu2 =    0.00000000       1.00000000       0.00000000    
      nu3 =    0.00000000       0.00000000       1.00000000    
      x:    134.91999999999999     
      y:    75.980000000000004     
      depth:    0.0000000000000000       m
      z:    0.0000000000000000     



 station #           69     DB    X198
      original latitude:    76.0000000    
      original longitude:    133.899994    
      original x:    133.899994    
      original y:    76.0000000    
      original depth:    0.00000000      m
      horizontal distance:    5.56331202E-02
      target x, y, z:    133.899994       76.0000000       0.00000000    
      closest estimate found:    0.00000000      m away

      receiver located in slice            1
                       in element         1236
                       in elastic domain
      at coordinates: 
      xi    =  -0.68333333333333257     
      eta   =   0.16666666666666607     
      gamma =    1.0000000000000000     
      rotation matrix: 
      nu1 =    1.00000000       0.00000000       0.00000000    
      nu2 =    0.00000000       1.00000000       0.00000000    
      nu3 =    0.00000000       0.00000000       1.00000000    
      x:    133.90000000000001     
      y:    76.000000000000000     
      depth:    0.0000000000000000       m
      z:    0.0000000000000000     



 station #           70     DB    X199
[...]
      original latitude:    61.9799995    
      original longitude:    126.930000    
      original x:    126.930000    
      original y:    61.9799995    
      original depth:    0.00000000      m
      horizontal distance:    4.98053879E-02
      target x, y, z:    126.930000       61.9799995       0.00000000    
      closest estimate found:    1.58882188E-14  m away

      receiver located in slice            1
                       in element         1235
                       in elastic domain
      at coordinates: 
      xi    =   0.15499999999999875     
      eta   =  -0.41749999999999987     
      gamma =    1.0000000000000000     
      rotation matrix: 
      nu1 =    1.00000000       0.00000000       0.00000000    
      nu2 =    0.00000000       1.00000000       0.00000000    
      nu3 =    0.00000000       0.00000000       1.00000000    
      x:    126.92999999999999     
      y:    61.980000000000004     
      depth:    0.0000000000000000       m
      z:    0.0000000000000000     



 station #          280     DB    X710
      original latitude:    62.0000000    
      original longitude:    125.910004    
      original x:    125.910004    
      original y:    62.0000000    
      original depth:    0.00000000      m
      horizontal distance:    4.88065071E-02
      target x, y, z:    125.910004       62.0000000       0.00000000    
      closest estimate found:    0.00000000      m away

      receiver located in slice            1
                       in element         1235
                       in elastic domain
      at coordinates: 
      xi    =   -1.5000000000002933E-002
      eta   =  -0.41666666666666669     
      gamma =    1.0000000000000000     
      rotation matrix: 
      nu1 =    1.00000000       0.00000000       0.00000000    
      nu2 =    0.00000000       1.00000000       0.00000000    
      nu3 =    0.00000000       0.00000000       1.00000000    
      x:    125.91000000000000     
      y:    62.000000000000000     
      depth:    0.0000000000000000       m
      z:    0.0000000000000000     



 station #          281     DB    X711
      original latitude:    61.9399986    
      original longitude:    124.949997    
      original x:    124.949997    
      original y:    61.9399986    
      original depth:    0.00000000      m
      horizontal distance:    4.78852838E-02
      target x, y, z:    124.949997       61.9399986       0.00000000    
      closest estimate found:    0.00000000      m away

      receiver located in slice            1
                       in element         1235
                       in elastic domain
      at coordinates: 
      xi    =  -0.17499999999999949     
      eta   =  -0.41916666666666680     
      gamma =    1.0000000000000000     
      rotation matrix: 
      nu1 =    1.00000000       0.00000000       0.00000000    
      nu2 =    0.00000000       1.00000000       0.00000000    
      nu3 =    0.00000000       0.00000000       1.00000000    
      x:    124.95000000000000     
      y:    61.939999999999998     
      depth:    0.0000000000000000       m
      z:    0.0000000000000000     



 station #          282     DB    X712
      original latitude:    61.9599991    
      original longitude:    123.940002    
      original x:    123.940002    
      original y:    61.9599991    
      original depth:    0.00000000      m
      horizontal distance:    4.68982756E-02
      target x, y, z:    123.940002       61.9599991       0.00000000    
      closest estimate found:    0.00000000      m away

      receiver located in slice            1
                       in element         1235
                       in elastic domain
      at coordinates: 
      xi    =  -0.34333333333333388     
      eta   =  -0.41833333333333339     
      gamma =    1.0000000000000000     
      rotation matrix: 
      nu1 =    1.00000000       0.00000000       0.00000000    
      nu2 =    0.00000000       1.00000000       0.00000000    
      nu3 =    0.00000000       0.00000000       1.00000000    
      x:    123.94000000000000     
      y:    61.960000000000001     
      depth:    0.0000000000000000       m
      z:    0.0000000000000000     



 station #          283     DB    X713
      original latitude:    61.9799995    
      original longitude:    122.919998    
      original x:    122.919998    
      original y:    61.9799995    
      original depth:    0.00000000      m
      horizontal distance:    4.59025614E-02
      target x, y, z:    122.919998       61.9799995       0.00000000    
      closest estimate found:    1.58882188E-14  m away

      receiver located in slice            1
                       in element         1235
                       in elastic domain
      at coordinates: 
      xi    =  -0.51333333333333087     
      eta   =  -0.41749999999999993     
      gamma =    1.0000000000000000     
      rotation matrix: 
      nu1 =    1.00000000       0.00000000       0.00000000    
      nu2 =    0.00000000       1.00000000       0.00000000    
      nu3 =    0.00000000       0.00000000       1.00000000    
      x:    122.92000000000002     
      y:    61.980000000000004     
      depth:    0.0000000000000000       m
      z:    0.0000000000000000     



 station #          284     DB    X714
      original latitude:    62.0000000    
      original longitude:    121.910004    
      original x:    121.910004    
      original y:    62.0000000    
      original depth:    0.00000000      m
      horizontal distance:    4.49176505E-02
      target x, y, z:    121.910004       62.0000000       0.00000000    
      closest estimate found:    0.00000000      m away

      receiver located in slice            1
                       in element         1235
                       in elastic domain
      at coordinates: 
      xi    =  -0.68166666666666731     
      eta   =  -0.41666666666666674     
      gamma =    1.0000000000000000     
      rotation matrix: 
      nu1 =    1.00000000       0.00000000       0.00000000    
      nu2 =    0.00000000       1.00000000       0.00000000    
      nu3 =    0.00000000       0.00000000       1.00000000    
      x:    121.91000000000000     
      y:    62.000000000000000     
      depth:    0.0000000000000000       m
      z:    0.0000000000000000     



 station #          285     DB    X715
      original latitude:    61.9399986    
      original longitude:    120.949997    
      original x:    120.949997    
      original y:    61.9399986    
      original depth:    0.00000000      m
      horizontal distance:    4.40022759E-02
      target x, y, z:    120.949997       61.9399986       0.00000000    
      closest estimate found:    1.42108547E-14  m away

      receiver located in slice            1
                       in element         1235
                       in elastic domain
      at coordinates: 
      xi    =  -0.84166666666666856     
      eta   =  -0.41916666666666680     
      gamma =    1.0000000000000000     
      rotation matrix: 
      nu1 =    1.00000000       0.00000000       0.00000000    
      nu2 =    0.00000000       1.00000000       0.00000000    
      nu3 =    0.00000000       0.00000000       1.00000000    
      x:    120.94999999999999     
      y:    61.939999999999998     
      depth:    0.0000000000000000       m
      z:    0.0000000000000000     



 station #          286     DB    X716
      original latitude:    61.9700012    
      original longitude:    119.930000    
      original x:    119.930000    
      original y:    61.9700012    
      original depth:    0.00000000      m
      horizontal distance:    4.30078655E-02
      target x, y, z:    119.930000       61.9700012       0.00000000    
      closest estimate found:    1.42108547E-14  m away

      receiver located in slice            1
                       in element         1234
                       in elastic domain
      at coordinates: 
      xi    =   0.98833333333333440     
      eta   =  -0.41791666666666644     
      gamma =    1.0000000000000000     
      rotation matrix: 
      nu1 =    1.00000000       0.00000000       0.00000000    
      nu2 =    0.00000000       1.00000000       0.00000000    
      nu3 =    0.00000000       0.00000000       1.00000000    
      x:    119.93000000000002     
      y:    61.969999999999999     
      depth:    0.0000000000000000       m
      z:    0.0000000000000000     



 station #          287     DB    X717
      original latitude:    61.9900017    
      original longitude:    118.919998    
      original x:    118.919998    
      original y:    61.9900017    
      original depth:    0.00000000      m
      horizontal distance:    4.20269668E-02
      target x, y, z:    118.919998       61.9900017       0.00000000    
      closest estimate found:    0.00000000      m away

      receiver located in slice            1
                       in element         1234
                       in elastic domain
      at coordinates: 
      xi    =   0.82000000000000006     
      eta   =  -0.41708333333333331     
      gamma =    1.0000000000000000     
      rotation matrix: 
      nu1 =    1.00000000       0.00000000       0.00000000    
      nu2 =    0.00000000       1.00000000       0.00000000    
      nu3 =    0.00000000       0.00000000       1.00000000    
      x:    118.92000000000000     
      y:    61.990000000000002     
      depth:    0.0000000000000000       m
      z:    0.0000000000000000     



 station #          288     DB    X718
      original latitude:    61.9300003    
      original longitude:    117.959999    
      original x:    117.959999    
      original y:    61.9300003    
      original depth:    0.00000000      m
      horizontal distance:    4.11170647E-02
      target x, y, z:    117.959999       61.9300003       0.00000000    
      closest estimate found:    0.00000000      m away

      receiver located in slice            1
                       in element         1234
                       in elastic domain
      at coordinates: 
      xi    =   0.65999999999999648     
      eta   =  -0.41958333333333342     
      gamma =    1.0000000000000000     
      rotation matrix: 
      nu1 =    1.00000000       0.00000000       0.00000000    
      nu2 =    0.00000000       1.00000000       0.00000000    
      nu3 =    0.00000000       0.00000000       1.00000000    
      x:    117.95999999999999     
      y:    61.930000000000000     
      depth:    0.0000000000000000       m
      z:    0.0000000000000000     



 station #          289     DB    X719
      original latitude:    61.9500008    
      original longitude:    116.940002    
      original x:    116.940002    
      original y:    61.9500008    
      original depth:    0.00000000      m
      horizontal distance:    4.01298925E-02
      target x, y, z:    116.940002       61.9500008       0.00000000    
      closest estimate found:    0.00000000      m away

      receiver located in slice            1
                       in element         1234
                       in elastic domain
      at coordinates: 
      xi    =   0.49000000000000182     
      eta   =  -0.41874999999999996     
      gamma =    1.0000000000000000     
      rotation matrix: 
      nu1 =    1.00000000       0.00000000       0.00000000    
      nu2 =    0.00000000       1.00000000       0.00000000    
      nu3 =    0.00000000       0.00000000       1.00000000    
      x:    116.94000000000000     
      y:    61.950000000000003     
      depth:    0.0000000000000000       m
      z:    0.0000000000000000     



 station #          290     DB    X720
      original latitude:    61.9700012    
      original longitude:    115.930000    
      original x:    115.930000    
      original y:    61.9700012    
      original depth:    0.00000000      m
      horizontal distance:    3.91540118E-02
      target x, y, z:    115.930000       61.9700012       0.00000000    
      closest estimate found:    0.00000000      m away

      receiver located in slice            1
                       in element         1234
                       in elastic domain
      at coordinates: 
      xi    =   0.32166666666666782     
      eta   =  -0.41791666666666677     
      gamma =    1.0000000000000000     
      rotation matrix: 
      nu1 =    1.00000000       0.00000000       0.00000000    
      nu2 =    0.00000000       1.00000000       0.00000000    
      nu3 =    0.00000000       0.00000000       1.00000000    
      x:    115.93000000000001     
      y:    61.969999999999999     
      depth:    0.0000000000000000       m
      z:    0.0000000000000000     


 maximum error in location of all the receivers:    5.85928536E-14  m

 Elapsed time for receiver detection in seconds =    1.9855431499999998     

 End of receiver detection - done

 source arrays:
   number of sources is            1
   size of source array                 =    1.43051147E-03 MB
                                        =    1.39698386E-06 GB

 seismograms:
   seismograms written by all processes
   writing out seismograms at every NTSTEP_BETWEEN_OUTPUT_SEISMOS =         3000
   maximum number of local receivers is          290  in slice            1
   size of maximum seismogram array       =    9.95635986     MB
                                          =    9.72300768E-03 GB


 Total number of samples for seismograms =         3000

 found a total of          290  receivers in all the slices


 Simulation setup:

   no acoustic simulation
 incorporating elastic simulation
   no poroelastic simulation

   no attenuation
   no anisotropy
   no oceans
   no gravity
 incorporating movie simulation


 preparing mass matrices
 preparing wavefields
   no dynamic faults
   no kinematic faults
 preparing constants
 preparing gravity
   no gravity simulation


 Elapsed time for preparing timerun in seconds =   0.23400202200000031     

 ************
  time loop
 ************
               scheme:         Newmark

            time step:    4.99999987E-05  s
 number of time steps:         3000
 total simulated time:   0.150000006      seconds
 start time:  -3.99999991E-02  seconds

 All processes are synchronized before the time loop

 Starting time iteration loop...

 Time step #            5
 Time:   -3.97999994E-02  seconds
 Elapsed time in seconds =   0.93800818099999894     
 Elapsed time in hh:mm:ss =      0 h 00 m 00 s
 Mean elapsed time per time step in seconds =   0.187601641    
 Max norm displacement vector U in all slices (m) =    1.33065100E-07
 Time steps done =            5  out of         3000
 Time steps remaining =         2995
 Estimated remaining time in seconds =    561.866882    
 Estimated remaining time in hh:mm:ss =      0 h 09 m 21 s
 Estimated total run time in seconds =    562.804932    
 Estimated total run time in hh:mm:ss =      0 h 09 m 22 s
 We have done   0.166666672     % of that
 The run will finish approximately on (in local time): Mon Nov 04, 2019 11:12
 ************************************************************
 **** BEWARE: the above time estimates are not very reliable
 **** because fewer than 100 iterations have been performed
 ************************************************************

 Time step #          500
 Time:   -1.50499996E-02  seconds
 Elapsed time in seconds =    118.97745224200000     
 Elapsed time in hh:mm:ss =      0 h 01 m 58 s
 Mean elapsed time per time step in seconds =   0.237954900    
 Max norm displacement vector U in all slices (m) =    3.80758084E-02
 Time steps done =          500  out of         3000
 Time steps remaining =         2500
 Estimated remaining time in seconds =    594.887268    
 Estimated remaining time in hh:mm:ss =      0 h 09 m 54 s
 Estimated total run time in seconds =    713.864685    
 Estimated total run time in hh:mm:ss =      0 h 11 m 53 s
 We have done    16.6666660     % of that
 The run will finish approximately on (in local time): Mon Nov 04, 2019 11:15

 Time step #         1000
 Time:    9.94999986E-03  seconds
 Elapsed time in seconds =    205.22489235800001     
 Elapsed time in hh:mm:ss =      0 h 03 m 25 s
 Mean elapsed time per time step in seconds =   0.205224887    
 Max norm displacement vector U in all slices (m) =    4.05303314E-02
 Time steps done =         1000  out of         3000
 Time steps remaining =         2000
 Estimated remaining time in seconds =    410.449799    
 Estimated remaining time in hh:mm:ss =      0 h 06 m 50 s
 Estimated total run time in seconds =    615.674683    
 Estimated total run time in hh:mm:ss =      0 h 10 m 15 s
 We have done    33.3333321     % of that
 The run will finish approximately on (in local time): Mon Nov 04, 2019 11:13

 Time step #         1500
 Time:    3.49499993E-02  seconds
 Elapsed time in seconds =    257.95572318299998     
 Elapsed time in hh:mm:ss =      0 h 04 m 17 s
 Mean elapsed time per time step in seconds =   0.171970487    
 Max norm displacement vector U in all slices (m) =    1.35079641E-02
 Time steps done =         1500  out of         3000
 Time steps remaining =         1500
 Estimated remaining time in seconds =    257.955719    
 Estimated remaining time in hh:mm:ss =      0 h 04 m 17 s
 Estimated total run time in seconds =    515.911438    
 Estimated total run time in hh:mm:ss =      0 h 08 m 35 s
 We have done    50.0000000     % of that
 The run will finish approximately on (in local time): Mon Nov 04, 2019 11:11

 Time step #         2000
 Time:    5.99500015E-02  seconds
 Elapsed time in seconds =    276.29672212600002     
 Elapsed time in hh:mm:ss =      0 h 04 m 36 s
 Mean elapsed time per time step in seconds =   0.138148367    
 Max norm displacement vector U in all slices (m) =    1.04839709E-02
 Time steps done =         2000  out of         3000
 Time steps remaining =         1000
 Estimated remaining time in seconds =    138.148361    
 Estimated remaining time in hh:mm:ss =      0 h 02 m 18 s
 Estimated total run time in seconds =    414.445068    
 Estimated total run time in hh:mm:ss =      0 h 06 m 54 s
 We have done    66.6666641     % of that
 The run will finish approximately on (in local time): Mon Nov 04, 2019 11:09

 Time step #         2500
 Time:    8.49500000E-02  seconds
 Elapsed time in seconds =    288.65230634000000     
 Elapsed time in hh:mm:ss =      0 h 04 m 48 s
 Mean elapsed time per time step in seconds =   0.115460925    
 Max norm displacement vector U in all slices (m) =    5.88965835E-03
 Time steps done =         2500  out of         3000
 Time steps remaining =          500
 Estimated remaining time in seconds =    57.7304611    
 Estimated remaining time in hh:mm:ss =      0 h 00 m 57 s
 Estimated total run time in seconds =    346.382782    
 Estimated total run time in hh:mm:ss =      0 h 05 m 46 s
 We have done    83.3333359     % of that
 The run will finish approximately on (in local time): Mon Nov 04, 2019 11:08

 Time step #         3000
 Time:   0.109949999      seconds
 Elapsed time in seconds =    302.27706410299999     
 Elapsed time in hh:mm:ss =      0 h 05 m 02 s
 Mean elapsed time per time step in seconds =   0.100759022    
 Max norm displacement vector U in all slices (m) =    4.95589012E-03
 Time steps done =         3000  out of         3000
 Time steps remaining =            0
 Estimated remaining time in seconds =    0.00000000    
 Estimated remaining time in hh:mm:ss =      0 h 00 m 00 s
 Estimated total run time in seconds =    302.277069    
 Estimated total run time in hh:mm:ss =      0 h 05 m 02 s
 We have done    100.000000     % of that


 Total number of time steps written:         3000
 Writing the seismograms in parallel took    11.8716860      seconds

 Time loop finished. Timing info:
 Total elapsed time in seconds =    314.17791482500002     
 Total elapsed time in hh:mm:ss =      0 h 05 m 14 s

 End of the simulation

